* DIODES INCORPORATED AND ITS AFFILIATED COMPANIES AND SUBSIDIARIES (COLLECTIVELY, "DIODES") 
* PROVIDE THESE SPICE MODELS AND DATA (COLLECTIVELY, THE "SM DATA") "AS IS" AND WITHOUT ANY 
* REPRESENTATIONS OR WARRANTIES, EXPRESS OR IMPLIED, INCLUDING ANY WARRANTY OF MERCHANTABILITY 
* OR FITNESS FOR A PARTICULAR PURPOSE, ANY WARRANTY ARISING FROM COURSE OF DEALING OR COURSE OF 
* PERFORMANCE, OR ANY WARRANTY THAT ACCESS TO OR OPERATION OF THE SM DATA WILL BE UNINTERRUPTED, 
* OR THAT THE SM DATA OR ANY SIMULATION USING THE SM DATA WILL BE ERROR FREE. TO THE MAXIMUM 
* EXTENT PERMITTED BY LAW, IN NO EVENT WILL DIODES BE LIABLE FOR ANY DIRECT OR INDIRECT, 
* SPECIAL, INCIDENTAL, PUNITIVE OR CONSEQUENTIAL DAMAGES ARISING OUT OF OR IN CONNECTION WITH 
* THE PRODUCTION OR USE OF SM DATA, HOWEVER CAUSED AND UNDER WHATEVER CAUSE OF ACTION OR THEORY 
* OF LIABILITY BROUGHT (INCLUDING, WITHOUT LIMITATION, UNDER ANY CONTRACT, NEGLIGENCE OR OTHER 
* TORT THEORY OF LIABILITY), EVEN IF DIODES HAS BEEN ADVISED OF THE POSSIBILITY OF SUCH DAMAGES, 
* AND DIODES' TOTAL LIABILITY (WHETHER IN CONTRACT, TORT OR OTHERWISE) WITH REGARD TO THE SM 
* DATA WILL NOT, IN THE AGGREGATE, EXCEED ANY SUMS PAID BY YOU TO DIODES FOR THE SM DATA.



*SRC=MMBT4401;DI_MMBT4401;BJTs NPN; Si;  40.0V  0.600A  200MHz   Diodes, Inc. transistor
.MODEL DI_MMBT4401  NPN (IS=60.9f NF=1.00 BF=410 VAF=114
+ IKF=0.364 ISE=25.5p NE=2.00 BR=4.00 NR=1.00
+ VAR=24.0 IKR=0.900 RE=0.713 RB=2.85 RC=0.285
+ XTB=1.5 CJE=36.2p VJE=1.10 MJE=0.500 CJC=15.4p VJC=0.300
+ MJC=0.300 TF=717p TR=121n EG=1.12 )

*SRC=UDZ5V6B;DI_UDZ5V6;Diodes;Zener <=10V; 5.60V  0.200W   Diodes Inc. Zener Diode
*SYM=HZEN
.SUBCKT DI_UDZ5V6  1 2
*        Terminals    A   K
D1 1 2 DF
DZ 3 1 DR
VZ 2 3 4.99
.MODEL DF D ( IS=14.7p RS=3.10 N=1.10
+ CJO=32.9p VJ=0.750 M=0.330 TT=50.1n )
.MODEL DR D ( IS=2.94f RS=1.28 N=0.828 )