Version 4
SHEET 1 3892 1860
WIRE -240 -48 -960 -48
WIRE -1904 112 -1920 112
WIRE -1664 112 -1904 112
WIRE -1600 112 -1664 112
WIRE -1200 112 -1504 112
WIRE -960 112 -960 -48
WIRE -960 112 -1200 112
WIRE -928 112 -960 112
WIRE -864 112 -928 112
WIRE -752 112 -768 112
WIRE -528 112 -752 112
WIRE -384 112 -528 112
WIRE -240 128 -240 -48
WIRE -240 128 -320 128
WIRE -224 128 -240 128
WIRE -240 208 -320 208
WIRE -208 208 -240 208
WIRE -1664 224 -1664 192
WIRE -1520 224 -1520 160
WIRE -1520 224 -1664 224
WIRE -928 224 -928 192
WIRE -848 224 -848 176
WIRE -848 224 -928 224
WIRE -784 224 -848 224
WIRE -1200 256 -1200 112
WIRE -528 256 -528 112
WIRE -384 256 -528 256
WIRE -384 288 -528 288
WIRE -240 288 -240 208
WIRE -1520 320 -1520 224
WIRE -784 320 -784 224
WIRE -1728 368 -1744 368
WIRE -1680 368 -1728 368
WIRE -1584 368 -1600 368
WIRE -992 368 -1008 368
WIRE -944 368 -992 368
WIRE -848 368 -864 368
WIRE -1904 384 -1904 112
WIRE -1728 384 -1728 368
WIRE -992 384 -992 368
WIRE -1904 512 -1904 464
WIRE -1728 512 -1728 464
WIRE -1728 512 -1904 512
WIRE -1616 512 -1728 512
WIRE -1520 512 -1520 416
WIRE -1520 512 -1616 512
WIRE -1200 512 -1200 336
WIRE -1200 512 -1520 512
WIRE -992 512 -992 464
WIRE -992 512 -1200 512
WIRE -880 512 -992 512
WIRE -784 512 -784 416
WIRE -784 512 -880 512
WIRE -528 512 -528 288
WIRE -528 512 -784 512
WIRE -240 512 -240 368
WIRE -240 512 -528 512
WIRE -1616 528 -1616 512
WIRE -880 528 -880 512
FLAG -880 528 0
FLAG -1616 528 0
FLAG -1920 112 VBATSEA
FLAG -384 192 VBATSEA
FLAG -224 128 Relay_Latching
FLAG -1744 368 V_Micro_1
FLAG -1008 368 V_Micro_2
FLAG -208 208 Relay_Out
SYMBOL npn -848 320 R0
WINDOW 0 90 23 Left 2
WINDOW 3 90 49 Left 2
SYMATTR InstName Q1
SYMATTR Value DI_MMBT4401
SYMBOL res -944 96 R0
WINDOW 0 -43 52 Left 2
WINDOW 3 -60 81 Left 2
SYMATTR InstName R1
SYMATTR Value 2.7k
SYMBOL voltage -992 368 R0
WINDOW 123 0 0 Left 0
WINDOW 39 0 0 Left 0
WINDOW 0 -141 516 Left 2
WINDOW 3 -139 541 Left 2
SYMATTR InstName Remote_Microcontroller_2
SYMATTR Value PULSE(0 3.3 0.5 0.000001 0.000001 1 2 1)
SYMBOL res -960 384 R270
WINDOW 0 66 41 VTop 2
WINDOW 3 68 49 VBottom 2
SYMATTR InstName R3
SYMATTR Value 1.6k
SYMBOL npn -1584 320 R0
WINDOW 0 93 29 Left 2
WINDOW 3 90 54 Left 2
SYMATTR InstName Q2
SYMATTR Value DI_MMBT4401
SYMBOL res -1680 96 R0
WINDOW 0 -58 41 Left 2
WINDOW 3 -57 65 Left 2
SYMATTR InstName R4
SYMATTR Value 2.7k
SYMBOL voltage -1728 368 R0
WINDOW 123 0 0 Left 0
WINDOW 39 0 0 Left 0
WINDOW 0 -184 520 Left 2
WINDOW 3 -184 543 Left 2
SYMATTR InstName Remote_Microcontroller_1
SYMATTR Value PULSE(0 3.3 2 0.000001 0.000001 0.5 1)
SYMBOL voltage -1904 368 R0
WINDOW 123 0 0 Left 0
WINDOW 39 0 0 Left 0
WINDOW 0 -247 12 Left 2
WINDOW 3 -73 38 Left 2
SYMATTR InstName Seaglider_Battery
SYMATTR Value 16
SYMBOL res -1696 384 R270
WINDOW 0 58 47 VTop 2
WINDOW 3 64 55 VBottom 2
SYMATTR InstName R6
SYMATTR Value 1.6k
SYMBOL res -1216 240 R0
WINDOW 3 37 66 Left 2
SYMATTR Value 100k
SYMATTR InstName R5
SYMBOL ZZZ\\Relays\\DPDT2 -352 208 R0
SYMATTR InstName U1
SYMATTR Value Rcoil=2880
SYMBOL res -256 272 R0
WINDOW 3 34 64 Left 2
SYMATTR Value 100
SYMATTR InstName R2
SYMBOL ZXM61N03F -1552 144 R270
WINDOW 0 93 -8 VTop 2
WINDOW 3 91 1 VBottom 2
SYMATTR InstName U2
SYMBOL ZXM61P03F -816 128 M270
WINDOW 0 101 -4 VBottom 2
WINDOW 3 47 -10 VTop 2
SYMATTR InstName U3
TEXT -896 96 Left 2 ;S
TEXT -752 96 Left 2 ;D
TEXT -832 192 Left 2 ;G
TEXT -1064 -400 Left 2 ;Protection diode on P-channel MOSFET points from D to S\nand will fully conduct when Vgs is more negative than Vgs(treshold)
TEXT -2168 896 Left 2 !.tran 0 3 0 0.0001
TEXT -1560 168 Left 2 ;G
TEXT -1608 96 Left 2 ;D
TEXT -1504 96 Left 2 ;S
TEXT -1928 -392 Left 2 ;Protection diode on N-channel MOSFET points from S to D\nand will fully conduct when Vgs is more positive than Vgs(treshold)
TEXT -1912 936 Left 2 ;When 0V is applied to the BJT, MOSFET conducts\nActs as normally closed switch, applying 3V3 opens the circuit
TEXT -1128 936 Left 2 ;When 3V3 is applied to BJT, MOSFET conducts\nActs as normally open switch, applying 3V3 closes the circuit
TEXT -1928 -336 Left 2 ;Acts as normally closed pushbutton
TEXT -1064 -344 Left 2 ;Acts as normally open pushbutton, in parallel with relay
TEXT 1040 -776 Left 2 ;* DIODES INCORPORATED AND ITS AFFILIATED COMPANIES AND SUBSIDIARIES (COLLECTIVELY, "DIODES") \n* PROVIDE THESE SPICE MODELS AND DATA (COLLECTIVELY, THE "SM DATA") "AS IS" AND WITHOUT ANY \n* REPRESENTATIONS OR WARRANTIES, EXPRESS OR IMPLIED, INCLUDING ANY WARRANTY OF MERCHANTABILITY \n* OR FITNESS FOR A PARTICULAR PURPOSE, ANY WARRANTY ARISING FROM COURSE OF DEALING OR COURSE OF \n* PERFORMANCE, OR ANY WARRANTY THAT ACCESS TO OR OPERATION OF THE SM DATA WILL BE UNINTERRUPTED, \n* OR THAT THE SM DATA OR ANY SIMULATION USING THE SM DATA WILL BE ERROR FREE. TO THE MAXIMUM \n* EXTENT PERMITTED BY LAW, IN NO EVENT WILL DIODES BE LIABLE FOR ANY DIRECT OR INDIRECT, \n* SPECIAL, INCIDENTAL, PUNITIVE OR CONSEQUENTIAL DAMAGES ARISING OUT OF OR IN CONNECTION WITH \n* THE PRODUCTION OR USE OF SM DATA, HOWEVER CAUSED AND UNDER WHATEVER CAUSE OF ACTION OR THEORY \n* OF LIABILITY BROUGHT (INCLUDING, WITHOUT LIMITATION, UNDER ANY CONTRACT, NEGLIGENCE OR OTHER \n* TORT THEORY OF LIABILITY), EVEN IF DIODES HAS BEEN ADVISED OF THE POSSIBILITY OF SUCH DAMAGES, \n* AND DIODES' TOTAL LIABILITY (WHETHER IN CONTRACT, TORT OR OTHERWISE) WITH REGARD TO THE SM \n* DATA WILL NOT, IN THE AGGREGATE, EXCEED ANY SUMS PAID BY YOU TO DIODES FOR THE SM DATA.\n \n \n \n*ZETEX ZXM61N03F Spice Model v1.0 Last Revised 23/1/03\n    *\n    .SUBCKT ZXM61N03F 3 4 5\n    *----connections----D-G-S\n    *\n    M1 6 2 8 8 MOSMOD\n    M2 6 2 8 8 MOSMODS\n    RG 4 2 6\n    RIN 2 8 200E6\n    RD 3 6 RDSMOD 0.15\n    RS 8 5 RDSMOD 0.024\n    RL 3 5 35E6\n    C1 2 8 135E-12\n    C2 2 3 17E-12 \n    C3 15 14 175E-12\n    C4 16 8 183E-12\n    D1 5 3 DMOD1\n    S1 2 15 14 13 SMOD1a\n    S2 13 15 14 13 SMOD1b\n    S3 16 13 13 8 SMOD2a\n    S4 16 2 13 8 SMOD2b\n    Egs2 13 8 2 8 1\n    Eds1 14 8 3 8 1\n    .MODEL MOSMOD NMOS VTO=2.2 IS=1E-15 KP=2.5 CBD=85E-12 LAMBDA=4.9E-3\n    .MODEL MOSMODS NMOS VTO=1.8 IS=1E-15 KP=0.02\n    .MODEL DMOD1 D IS=1E-13 RS=0.15 BV=38 IBV=1E-6 TT=9e-9\n    .MODEL SMOD1a VSWITCH RON=1e-2 ROFF=1e4  VON=-1.5 VOFF=1.5\n    .MODEL SMOD1b VSWITCH RON=1e-2 ROFF=1e4  VON=1.5 VOFF=-1.5\n    .MODEL SMOD2a VSWITCH RON=1e2 ROFF=1e4  VON=-1.5 VOFF=-3.5\n    .MODEL SMOD2b VSWITCH RON=1e-2 ROFF=1e4  VON=-3.5 VOFF=-1.5\n    .MODEL RDSMOD RES (TC1=3E-3 TC2=2E-5)\n    .ENDS  ZXM61N03F\n    *\n    *$
TEXT 2520 -776 Left 2 ;* DIODES INCORPORATED AND ITS AFFILIATED COMPANIES AND SUBSIDIARIES (COLLECTIVELY, "DIODES") \n* PROVIDE THESE SPICE MODELS AND DATA (COLLECTIVELY, THE "SM DATA") "AS IS" AND WITHOUT ANY \n* REPRESENTATIONS OR WARRANTIES, EXPRESS OR IMPLIED, INCLUDING ANY WARRANTY OF MERCHANTABILITY \n* OR FITNESS FOR A PARTICULAR PURPOSE, ANY WARRANTY ARISING FROM COURSE OF DEALING OR COURSE OF \n* PERFORMANCE, OR ANY WARRANTY THAT ACCESS TO OR OPERATION OF THE SM DATA WILL BE UNINTERRUPTED, \n* OR THAT THE SM DATA OR ANY SIMULATION USING THE SM DATA WILL BE ERROR FREE. TO THE MAXIMUM \n* EXTENT PERMITTED BY LAW, IN NO EVENT WILL DIODES BE LIABLE FOR ANY DIRECT OR INDIRECT, \n* SPECIAL, INCIDENTAL, PUNITIVE OR CONSEQUENTIAL DAMAGES ARISING OUT OF OR IN CONNECTION WITH \n* THE PRODUCTION OR USE OF SM DATA, HOWEVER CAUSED AND UNDER WHATEVER CAUSE OF ACTION OR THEORY \n* OF LIABILITY BROUGHT (INCLUDING, WITHOUT LIMITATION, UNDER ANY CONTRACT, NEGLIGENCE OR OTHER \n* TORT THEORY OF LIABILITY), EVEN IF DIODES HAS BEEN ADVISED OF THE POSSIBILITY OF SUCH DAMAGES, \n* AND DIODES' TOTAL LIABILITY (WHETHER IN CONTRACT, TORT OR OTHERWISE) WITH REGARD TO THE SM \n* DATA WILL NOT, IN THE AGGREGATE, EXCEED ANY SUMS PAID BY YOU TO DIODES FOR THE SM DATA.\n \n\n \n*ZETEX ZXM61P03F Spice Model v1.0 Last Revised 23/2/04\n    *\n    .SUBCKT ZXM61P03F 3 4 5\n    *----connections----D G S\n    *\n    M1 6 20 8 8 MOSMOD\n    M2 6 20 8 8 MOSMODS\n    RG 4 2 8\n    RIN 2 8 200E6\n    RD 3 6 RDSMOD 0.12\n    RS 8 5 RDSMOD 0.09 \n    RL 3 5 35E6\n    C1 2 8 162E-12\n    C3 15 14 210E-12 \n    C4 16 8 230E-12\n    D1 3 5 DMOD1\n    D2 3 17 DMOD2\n    S1 2 15 13 14 SMOD1a\n    S2 13 15 13 14 SMOD1b\n    S3 16 13 8 13 SMOD2a\n    S4 16 2 8 13 SMOD2b\n    Egs1 2 17 2 8 1\n    Egs2 13 8 2 8 1\n    Eds1 14 8 3 8 1\n    Egt1 2 20 21 8 1\n    Vgt1 8 22 1\n    Igt1 8 21 1\n    Rgt 21 22 RMOD2 1\n    .MODEL MOSMOD PMOS VTO=-2.1 IS=1E-15 KP=1.4 CBD=102E-12 PB=1 LAMBDA=4.9E-3\n    .MODEL MOSMODS PMOS VTO=-1.7 IS=1E-15 KP=0.018 PB=1\n    .MODEL DMOD1 D IS=6E-13 RS=0.1 N=1.01 BV=36 TT=1e-8\n    .MODEL DMOD2 D CJO=86e-12 IS=1e-30 N=10\n    .MODEL SMOD1a VSWITCH RON=1e-2 ROFF=1e4  VON=-1.75 VOFF=2.75\n    .MODEL SMOD1b VSWITCH RON=1e-2 ROFF=1e4  VON=2.75 VOFF=-1.75\n    .MODEL SMOD2a VSWITCH RON=1e-2 ROFF=1e4  VON=-1.5 VOFF=-3.5\n    .MODEL SMOD2b VSWITCH RON=1e-2 ROFF=1e4  VON=-3.5 VOFF=-1.5\n    .MODEL RDSMOD RES (TC1=3E-3 TC2=1.5E-5)\n    .MODEL RMOD2 RES (TC1=2.2E-3 TC2=3E-6)\n    .ENDS ZXM61P03F\n    *\n    *$\n    *
TEXT 1048 -856 Left 2 ;Models used
TEXT 1040 920 Left 2 !* DIODES INCORPORATED AND ITS AFFILIATED COMPANIES AND SUBSIDIARIES (COLLECTIVELY, "DIODES") \n* PROVIDE THESE SPICE MODELS AND DATA (COLLECTIVELY, THE "SM DATA") "AS IS" AND WITHOUT ANY \n* REPRESENTATIONS OR WARRANTIES, EXPRESS OR IMPLIED, INCLUDING ANY WARRANTY OF MERCHANTABILITY \n* OR FITNESS FOR A PARTICULAR PURPOSE, ANY WARRANTY ARISING FROM COURSE OF DEALING OR COURSE OF \n* PERFORMANCE, OR ANY WARRANTY THAT ACCESS TO OR OPERATION OF THE SM DATA WILL BE UNINTERRUPTED, \n* OR THAT THE SM DATA OR ANY SIMULATION USING THE SM DATA WILL BE ERROR FREE. TO THE MAXIMUM \n* EXTENT PERMITTED BY LAW, IN NO EVENT WILL DIODES BE LIABLE FOR ANY DIRECT OR INDIRECT, \n* SPECIAL, INCIDENTAL, PUNITIVE OR CONSEQUENTIAL DAMAGES ARISING OUT OF OR IN CONNECTION WITH \n* THE PRODUCTION OR USE OF SM DATA, HOWEVER CAUSED AND UNDER WHATEVER CAUSE OF ACTION OR THEORY \n* OF LIABILITY BROUGHT (INCLUDING, WITHOUT LIMITATION, UNDER ANY CONTRACT, NEGLIGENCE OR OTHER \n* TORT THEORY OF LIABILITY), EVEN IF DIODES HAS BEEN ADVISED OF THE POSSIBILITY OF SUCH DAMAGES, \n* AND DIODES' TOTAL LIABILITY (WHETHER IN CONTRACT, TORT OR OTHERWISE) WITH REGARD TO THE SM \n* DATA WILL NOT, IN THE AGGREGATE, EXCEED ANY SUMS PAID BY YOU TO DIODES FOR THE SM DATA.\n \n \n \n*SRC=MMBT4401;DI_MMBT4401;BJTs NPN; Si;  40.0V  0.600A  200MHz   Diodes, Inc. transistor\n.MODEL DI_MMBT4401  NPN (IS=60.9f NF=1.00 BF=410 VAF=114\n+ IKF=0.364 ISE=25.5p NE=2.00 BR=4.00 NR=1.00\n+ VAR=24.0 IKR=0.900 RE=0.713 RB=2.85 RC=0.285\n+ XTB=1.5 CJE=36.2p VJE=1.10 MJE=0.500 CJC=15.4p VJC=0.300\n+ MJC=0.300 TF=717p TR=121n EG=1.12 )
TEXT 1040 1592 Left 2 ;*SRC=UDZ5V6B;DI_UDZ5V6;Diodes;Zener <=10V; 5.60V  0.200W   Diodes Inc. Zener Diode\n*SYM=HZEN\n.SUBCKT DI_UDZ5V6  1 2\n*        Terminals    A   K\nD1 1 2 DF\nDZ 3 1 DR\nVZ 2 3 4.99\n.MODEL DF D ( IS=14.7p RS=3.10 N=1.10\n+ CJO=32.9p VJ=0.750 M=0.330 TT=50.1n )\n.MODEL DR D ( IS=2.94f RS=1.28 N=0.828 )
TEXT -1920 -168 Left 2 ;Important power graph:\n(V(vbatsea)-V(relay_latching))*Ix(U2:3)
